project/outputs/cpf_branch_preserving_release_20260918/verified/current_release_roundtrip.m
function mpc = current_release_roundtrip
%CURRENT_RELEASE_ROUNDTRIP

%% MATPOWER Case Format : Version 2
mpc.version = '2';

%%-----  Power Flow Data  -----%%
%% system MVA base
mpc.baseMVA = 100;

%% bus data
%	bus_i	type	Pd	Qd	Gs	Bs	area	Vm	Va	baseKV	zone	Vmax	Vmin
mpc.bus = [
	1	3	0	0	0	0	1	1.06	0	230	1	1.1	0.9;
	2	1	20	10	0	0	1	1	0	230	1	1.1	0.9;
	3	1	45	15	0	0	1	1	0	230	1	1.1	0.9;
	4	1	0	0	0	0	1	1	0	230	1	1.1	0.9;
	5	1	60	10	0	0	1	1	0	230	1	1.1	0.9;
	6	2	0	0	0	0	1	1	0	13.8	1	1.1	0.9;
	7	1	40	5	0	0	1	1	0	230	1	1.1	0.9;
];

%% generator data
%	bus	Pg	Qg	Qmax	Qmin	Vg	mBase	status	Pmax	Pmin	Pc1	Pc2	Qc1min	Qc1max	Qc2min	Qc2max	ramp_agc	ramp_10	ramp_30	ramp_q	apf
mpc.gen = [
	1	0	0	500	-500	1.06	1000	1	500	-500	0	0	0	0	0	0	0	0	0	0	0;
	6	40	0	300	-300	1	187.5	1	300	0	0	0	0	0	0	0	0	0	0	0	0;
];

%% branch data
%	fbus	tbus	r	x	b	rateA	rateB	rateC	ratio	angle	status	angmin	angmax
mpc.branch = [
	1	2	0.02	0.06	0.06	250	250	250	0	0	1	-360	360;
	1	3	0.08	0.24	0.05	250	250	250	0	0	1	-360	360;
	2	3	0.06	0.18	0.04	250	250	250	0	0	1	-360	360;
	2	4	0.06	0.18	0.04	250	250	250	0	0	1	-360	360;
	2	5	0.04	0.12	0.03	250	250	250	0	0	1	-360	360;
	3	4	0.01	0.03	0.02	250	250	250	0	0	1	-360	360;
	4	5	0.08	0.24	0.05	250	250	250	0	0	1	-360	360;
	6	2	0.005	0.05	0	250	250	250	1	0	1	-360	360;
	4	7	0.005	0.05	0	250	250	250	1	0	1	-360	360;
];

%%-----  VSC-MTDC Data  -----%%
%% DC bus data
%	busdc_i	status	Vdc	baseKVdc
mpc.busdc = [
	2	1	1.008	300;
	3	1	1	300;
	5	1	0.998	300;
];

%% DC branch data
%	fbusdc	tbusdc	r	status
mpc.branchdc = [
	2	3	0.02633	1;
	3	5	0.02337	1;
	2	5	0.03601	1;
];

%% VSC converter data
%	acbus	busdc	status	ac_mode	dc_mode	Pac_set	Qac_set	Vac_set	Pdc_set	Vdc_set	Kdroop	lossA	lossB	lossC	tr_r	tr_x	tr_b	tr_shift	tr_rateA	tr_rateB	tr_rateC	filter_g	filter_b	reactor_r	reactor_x	reactor_b	reactor_rateA	reactor_rateB	reactor_rateC
mpc.vsc = [
	2	2	1	3	2	-60	-40	0.984	58.59	1.008	0	1.1033	0.1999949	0.1466667	0	0.0001	0	0	150	150	150	0	0	0.0009615	0.0399	0	150	150	150;
	3	3	1	1	1	20.68	7.17	1	-21.84	1	0	1.1033	0.1999949	0.2222333	0	0.0001	0	0	150	150	150	0	0	0	0.0392	0	150	150	150;
	5	5	1	3	2	35	5	0.993	-36.21	0.998	0	1.1033	0.1999949	0.2222333	0	0.0001	0	0	150	150	150	0	0	0.000785	0.0399	0	150	150	150;
];

%% Active converter current constraints (system p.u.; zero inactive)
mpc.vsc_current_limit = [0;1.5;0];

%% Original AC voltage mode for current-limit release (zero unknown)
mpc.vsc_current_restore_mode = [0;2;0];

%% generator capability metadata
mpc.gen_capability = struct();
mpc.gen_capability.Snom = [1000;187.5];
